&jules_soil
dzsoil_io=0.1,0.25,0.65,2.0,
sm_levels=4,
l_dpsids_dsdz=.false.,
l_soil_sat_down=.false.,
l_vg_soil=.false.,
l_holdwater=.false.,
soilhc_method=1,
l_bedrock=.false.,
l_tile_soil=.false.,
confrac = 0.3,
cs_min = 1.0e-6,
zsmc = 1.0,
zst = 1.0
/
